.include tsmc.txt
*resistor connected between nodes 1 and 2
.SUBCKT CMOSINV 1 2
M1 2 1 0 0 CMOSN W=1u
M2 2 1 3 3 CMOSP W=3u
VDD 3 0 DC 5v
.ENDS CMOSINV

X1 1 2 CMOSINV
X2 2 3 CMOSINV
X3 3 1 CMOSINV
.ic V(1)=5
*V1 1 0 DC 0v
*.dc v1 0 5 0.05
*transient analysis for 20ms, step size 0.02ms
.tran 0.05ns 100ns

*defining the run-time control functions
.control

run
*plotting input and output voltages
plot v(1) v(2) v(3)
.endc
.end
