.MODEL ALD1105N NMOS (LEVEL=1 CBD=0.5p CBS=0.5p CGDO=0.1p CGSO=0.1p GAMMA=.85
+ KP=225u L=10E-6 LAMBDA=0.029 PHI=.9 VTO=0.7 W=20E-6)